./analysis/CHEMBL3431053.pdb
 OpenBabel02232411463D

103 98  0  0  0  0  0  0  0  0999 V2000
    3.6980    0.9150   -3.4930 N   0  0  0  0  0  0  0  0  0  0  0  0
    2.9470    0.5800   -2.3830 C   0  0  0  0  0  0  0  0  0  0  0  0
    3.6050    0.2220   -1.2990 N   0  0  0  0  0  0  0  0  0  0  0  0
    2.8560   -0.0730   -0.2340 C   0  0  0  0  0  0  0  0  0  0  0  0
    3.5410   -0.4760    1.0210 C   0  0  0  0  0  0  0  0  0  0  0  0
    2.8430   -0.6290    2.2260 C   0  0  0  0  0  0  0  0  0  0  0  0
    3.5310   -0.9950    3.3810 C   0  0  0  0  0  0  0  0  0  0  0  0
    4.9010   -1.2100    3.3170 C   0  0  0  0  0  0  0  0  0  0  0  0
    5.5290   -1.0490    2.0940 C   0  0  0  0  0  0  0  0  0  0  0  0
    4.8890   -0.6870    0.9610 N   0  0  0  0  0  0  0  0  0  0  0  0
    1.5240   -0.0100   -0.2200 N   0  0  0  0  0  0  0  0  0  0  0  0
    0.9510    0.3650   -1.3690 C   0  0  0  0  0  0  0  0  0  0  0  0
   -0.4890    0.4310   -1.4080 N   0  0  0  0  0  0  0  0  0  0  0  0
   -1.2380    0.1470   -0.3010 N   0  0  0  0  0  0  0  0  0  0  0  0
   -2.5150    0.3210   -0.6720 C   0  0  0  0  0  0  0  0  0  0  0  0
   -3.6190    0.1190    0.2730 C   0  0  0  0  0  0  0  0  0  0  0  0
   -3.4320   -0.6570    1.4280 C   0  0  0  0  0  0  0  0  0  0  0  0
   -4.4800   -0.8590    2.3310 C   0  0  0  0  0  0  0  0  0  0  0  0
   -5.7270   -0.2870    2.0910 C   0  0  0  0  0  0  0  0  0  0  0  0
   -5.9270    0.4920    0.9530 C   0  0  0  0  0  0  0  0  0  0  0  0
   -4.8800    0.6930    0.0490 C   0  0  0  0  0  0  0  0  0  0  0  0
   -2.5950    0.6930   -2.0380 C   0  0  0  0  0  0  0  0  0  0  0  0
   -1.3020    0.7570   -2.4970 C   0  0  0  0  0  0  0  0  0  0  0  0
   -0.8530    1.0640   -3.7330 N   0  0  0  0  0  0  0  0  0  0  0  0
    1.6320    0.6850   -2.4790 N   0  0  0  0  0  0  0  0  0  0  0  0
    1.1360    1.1740   -0.6850 O   0  0  0  0  0  0  0  0  0  0  0  0
    0.5630    0.2030   -0.2050 C   0  0  0  0  0  0  0  0  0  0  0  0
    1.2750   -0.9360    0.0030 O   0  0  0  0  0  0  0  0  0  0  0  0
   -0.9130    0.0990    0.1940 C   0  0  0  0  0  0  0  0  0  0  0  0
   -1.0710   -0.2860    1.4930 F   0  0  0  0  0  0  0  0  0  0  0  0
   -1.5900   -0.8140   -0.5600 F   0  0  0  0  0  0  0  0  0  0  0  0
   -1.5830    1.2770    0.0610 F   0  0  0  0  0  0  0  0  0  0  0  0
    0.9890    1.4570    0.1620 O   0  0  0  0  0  0  0  0  0  0  0  0
    0.5370    0.3210    0.0880 C   0  0  0  0  0  0  0  0  0  0  0  0
    1.3710   -0.7260    0.3200 O   0  0  0  0  0  0  0  0  0  0  0  0
   -0.9130   -0.0820   -0.2000 C   0  0  0  0  0  0  0  0  0  0  0  0
   -1.5930   -0.3930    0.9410 F   0  0  0  0  0  0  0  0  0  0  0  0
   -1.6250    0.9070   -0.8110 F   0  0  0  0  0  0  0  0  0  0  0  0
   -1.0060   -1.1740   -1.0110 F   0  0  0  0  0  0  0  0  0  0  0  0
    1.0760    1.4020   -0.1070 O   0  0  0  0  0  0  0  0  0  0  0  0
    0.5590    0.2960    0.0000 C   0  0  0  0  0  0  0  0  0  0  0  0
    1.3550   -0.7700    0.2710 O   0  0  0  0  0  0  0  0  0  0  0  0
   -0.9320   -0.0450   -0.0990 C   0  0  0  0  0  0  0  0  0  0  0  0
   -1.1670   -1.1540   -0.8560 F   0  0  0  0  0  0  0  0  0  0  0  0
   -1.4820   -0.2910    1.1230 F   0  0  0  0  0  0  0  0  0  0  0  0
   -1.6690    0.9570   -0.6550 F   0  0  0  0  0  0  0  0  0  0  0  0
    1.1940    1.1680   -0.5860 O   0  0  0  0  0  0  0  0  0  0  0  0
    0.5810    0.2320   -0.0860 C   0  0  0  0  0  0  0  0  0  0  0  0
    1.2810   -0.7110    0.5970 O   0  0  0  0  0  0  0  0  0  0  0  0
   -0.9310   -0.0060   -0.1110 C   0  0  0  0  0  0  0  0  0  0  0  0
   -1.5050    0.2060    1.1070 F   0  0  0  0  0  0  0  0  0  0  0  0
   -1.5820    0.8100   -0.9870 F   0  0  0  0  0  0  0  0  0  0  0  0
   -1.2540   -1.2810   -0.4680 F   0  0  0  0  0  0  0  0  0  0  0  0
    1.0360    1.2380   -0.7250 O   0  0  0  0  0  0  0  0  0  0  0  0
    0.5470    0.2430   -0.2030 C   0  0  0  0  0  0  0  0  0  0  0  0
    1.3740   -0.7690    0.1680 O   0  0  0  0  0  0  0  0  0  0  0  0
   -0.9300    0.0000    0.1260 C   0  0  0  0  0  0  0  0  0  0  0  0
   -1.1860    0.1340    1.4580 F   0  0  0  0  0  0  0  0  0  0  0  0
   -1.3450   -1.2520   -0.2190 F   0  0  0  0  0  0  0  0  0  0  0  0
   -1.7640    0.8680   -0.5130 F   0  0  0  0  0  0  0  0  0  0  0  0
    1.0010    1.4590    0.0480 O   0  0  0  0  0  0  0  0  0  0  0  0
    0.5430    0.3240   -0.0100 C   0  0  0  0  0  0  0  0  0  0  0  0
    1.4050   -0.7230   -0.0860 O   0  0  0  0  0  0  0  0  0  0  0  0
   -0.9340   -0.0820    0.0220 C   0  0  0  0  0  0  0  0  0  0  0  0
   -1.2410   -1.0230   -0.9160 F   0  0  0  0  0  0  0  0  0  0  0  0
   -1.7770    0.9650   -0.2020 F   0  0  0  0  0  0  0  0  0  0  0  0
   -1.2930   -0.6100    1.2260 F   0  0  0  0  0  0  0  0  0  0  0  0
    1.0360    1.3790   -0.4030 O   0  0  0  0  0  0  0  0  0  0  0  0
    0.5500    0.2930   -0.1130 C   0  0  0  0  0  0  0  0  0  0  0  0
    1.3820   -0.7670    0.0700 O   0  0  0  0  0  0  0  0  0  0  0  0
   -0.9330   -0.0380    0.0830 C   0  0  0  0  0  0  0  0  0  0  0  0
   -1.2050   -0.4650    1.3490 F   0  0  0  0  0  0  0  0  0  0  0  0
   -1.3580   -1.0270   -0.7540 F   0  0  0  0  0  0  0  0  0  0  0  0
   -1.7500    1.0280   -0.1430 F   0  0  0  0  0  0  0  0  0  0  0  0
    1.0360    1.4060   -0.2770 O   0  0  0  0  0  0  0  0  0  0  0  0
    0.5510    0.3010   -0.0730 C   0  0  0  0  0  0  0  0  0  0  0  0
    1.3890   -0.7450    0.1550 O   0  0  0  0  0  0  0  0  0  0  0  0
   -0.9360   -0.0590    0.0030 C   0  0  0  0  0  0  0  0  0  0  0  0
   -1.2200   -1.2540   -0.5890 F   0  0  0  0  0  0  0  0  0  0  0  0
   -1.7330    0.8640   -0.6050 F   0  0  0  0  0  0  0  0  0  0  0  0
   -1.3760   -0.1560    1.2900 F   0  0  0  0  0  0  0  0  0  0  0  0
    3.2240    1.6060   -4.0570 H   0  0  0  0  0  0  0  0  0  0  0  0
    4.6410    1.1400   -3.2030 H   0  0  0  0  0  0  0  0  0  0  0  0
    1.7680   -0.4600    2.2690 H   0  0  0  0  0  0  0  0  0  0  0  0
    3.0000   -1.1100    4.3230 H   0  0  0  0  0  0  0  0  0  0  0  0
    5.4670   -1.4970    4.1960 H   0  0  0  0  0  0  0  0  0  0  0  0
    6.5990   -1.2100    1.9890 H   0  0  0  0  0  0  0  0  0  0  0  0
   -2.4640   -1.1120    1.6290 H   0  0  0  0  0  0  0  0  0  0  0  0
   -4.3190   -1.4630    3.2230 H   0  0  0  0  0  0  0  0  0  0  0  0
   -6.5400   -0.4440    2.7940 H   0  0  0  0  0  0  0  0  0  0  0  0
   -6.8990    0.9450    0.7700 H   0  0  0  0  0  0  0  0  0  0  0  0
   -5.0590    1.3170   -0.8230 H   0  0  0  0  0  0  0  0  0  0  0  0
   -3.4850    0.8830   -2.6190 H   0  0  0  0  0  0  0  0  0  0  0  0
    0.1450    1.0190   -3.9560 H   0  0  0  0  0  0  0  0  0  0  0  0
   -1.4670    1.1980   -4.5320 H   0  0  0  0  0  0  0  0  0  0  0  0
    2.1820   -0.7180   -0.3010 H   0  0  0  0  0  0  0  0  0  0  0  0
    2.2400   -0.3110    0.5110 H   0  0  0  0  0  0  0  0  0  0  0  0
    2.2600   -0.3940    0.3230 H   0  0  0  0  0  0  0  0  0  0  0  0
    2.2150   -0.4190    0.5330 H   0  0  0  0  0  0  0  0  0  0  0  0
    2.2680   -0.4630   -0.0920 H   0  0  0  0  0  0  0  0  0  0  0  0
    2.2950   -0.3100   -0.0820 H   0  0  0  0  0  0  0  0  0  0  0  0
    2.2790   -0.4040   -0.0880 H   0  0  0  0  0  0  0  0  0  0  0  0
    2.2880   -0.3580    0.0950 H   0  0  0  0  0  0  0  0  0  0  0  0
  1  2  1  0  0  0  0
  1 82  1  0  0  0  0
  1 83  1  0  0  0  0
  2  3  2  0  0  0  0
  2 25  1  0  0  0  0
  3  4  1  0  0  0  0
  4  5  1  0  0  0  0
  4 11  2  0  0  0  0
  5  6  2  0  0  0  0
  5 10  1  0  0  0  0
  6  7  1  0  0  0  0
  6 84  1  0  0  0  0
  7  8  2  0  0  0  0
  7 85  1  0  0  0  0
  8  9  1  0  0  0  0
  8 86  1  0  0  0  0
  9 10  2  0  0  0  0
  9 87  1  0  0  0  0
 11 12  1  0  0  0  0
 12 13  1  0  0  0  0
 12 25  2  0  0  0  0
 13 14  1  0  0  0  0
 13 23  1  0  0  0  0
 14 15  2  0  0  0  0
 15 16  1  0  0  0  0
 15 22  1  0  0  0  0
 16 17  2  0  0  0  0
 16 21  1  0  0  0  0
 17 18  1  0  0  0  0
 17 88  1  0  0  0  0
 18 19  2  0  0  0  0
 18 89  1  0  0  0  0
 19 20  1  0  0  0  0
 19 90  1  0  0  0  0
 20 21  2  0  0  0  0
 20 91  1  0  0  0  0
 21 92  1  0  0  0  0
 22 23  2  0  0  0  0
 22 93  1  0  0  0  0
 23 24  1  0  0  0  0
 24 94  1  0  0  0  0
 24 95  1  0  0  0  0
 26 27  2  0  0  0  0
 27 28  1  0  0  0  0
 27 29  1  0  0  0  0
 28 96  1  0  0  0  0
 29 30  1  0  0  0  0
 29 31  1  0  0  0  0
 29 32  1  0  0  0  0
 33 34  2  0  0  0  0
 34 35  1  0  0  0  0
 34 36  1  0  0  0  0
 35 97  1  0  0  0  0
 36 37  1  0  0  0  0
 36 38  1  0  0  0  0
 36 39  1  0  0  0  0
 40 41  2  0  0  0  0
 41 42  1  0  0  0  0
 41 43  1  0  0  0  0
 42 98  1  0  0  0  0
 43 44  1  0  0  0  0
 43 45  1  0  0  0  0
 43 46  1  0  0  0  0
 47 48  2  0  0  0  0
 48 49  1  0  0  0  0
 48 50  1  0  0  0  0
 49 99  1  0  0  0  0
 50 51  1  0  0  0  0
 50 52  1  0  0  0  0
 50 53  1  0  0  0  0
 54 55  2  0  0  0  0
 55 56  1  0  0  0  0
 55 57  1  0  0  0  0
 56100  1  0  0  0  0
 57 58  1  0  0  0  0
 57 59  1  0  0  0  0
 57 60  1  0  0  0  0
 61 62  2  0  0  0  0
 62 63  1  0  0  0  0
 62 64  1  0  0  0  0
 63101  1  0  0  0  0
 64 65  1  0  0  0  0
 64 66  1  0  0  0  0
 64 67  1  0  0  0  0
 68 69  2  0  0  0  0
 69 70  1  0  0  0  0
 69 71  1  0  0  0  0
 70102  1  0  0  0  0
 71 72  1  0  0  0  0
 71 73  1  0  0  0  0
 71 74  1  0  0  0  0
 75 76  2  0  0  0  0
 76 77  1  0  0  0  0
 76 78  1  0  0  0  0
 77103  1  0  0  0  0
 78 79  1  0  0  0  0
 78 80  1  0  0  0  0
 78 81  1  0  0  0  0
M  END
$$$$
